/*--------------------------------*- C++ -*----------------------------------*\
| =========                 |                                                 |
| \\      /  F ield         | OpenFOAM: The Open Source CFD Toolbox           |
|  \\    /   O peration     | Version:  v2006                                 |
|   \\  /    A nd           | Website:  www.openfoam.com                      |
|    \\/     M anipulation  |                                                 |
\*---------------------------------------------------------------------------*/
FoamFile
{
    version     2.0;
    format      ascii;
    class       dictionary;
    object      fvSchemes;
}
// * * * * * * * * * * * * * * * * * * * * * * * * * * * * * * * * * * * * * //

ddtSchemes
{
    default         Euler;
}

gradSchemes
{
    default         Gauss linear;
    grad(T)         Gauss linear;
}

divSchemes
{
    default         none;
// alphaEqn
    div(phi,alpha)  Gauss limitedLinear01 1;
    div(phir,alpha) Gauss limitedLinear01 1;
// UEqn
    div(phia,Ua)    Gauss linearUpwind grad(Ua);
    div(phib,Ub)    Gauss linearUpwind grad(Ub);
    div(phiRa,Ua)   Gauss linear;
    div(phiRb,Ub)   Gauss linear;
// pEqn
    div(alpha,nu)   Gauss linear;
// k and EpsilonEqn
    div(phib,k)     Gauss linearUpwind grad(k);
    div(phib,epsilon) Gauss linearUpwind grad(epsilon);
    div(phib,omega) Gauss linearUpwind grad(omega);
// ThetaEqn
    div(phi,Theta)  Gauss limitedLinear 1;
// alphaPlastic
    div(phia,alphaPlastic)    Gauss upwind;
// pa
    div(phia,pa_new_value)    Gauss upwind;
}

laplacianSchemes
{
    default         none;
    laplacian(diffusivity,cellDisplacement)  Gauss linear corrected;
// UEqn
    laplacian(nuEffa,Ua) Gauss linear corrected;
    laplacian(nuEffb,Ub) Gauss linear corrected;
    laplacian(nuFra,Ua)  Gauss linear corrected;
// pEqn
    laplacian((rho*(1|A(U))),p_rbgh) Gauss linear corrected;
// k and EpsilonEqn 
    laplacian(DkEff,k) Gauss linear corrected;
    laplacian(DkEff,beta) Gauss linear corrected;
    laplacian(DepsilonEff,epsilon) Gauss linear corrected;
    laplacian(DepsilonEff,beta) Gauss linear corrected;
    laplacian(DomegaEff,omega) Gauss linear corrected;
//ThetaEqn
    laplacian(kappa,Theta) Gauss linear corrected;
}

interpolationSchemes
{
    default         linear;
}

snGradSchemes
{
    default         corrected;
}

oversetInterpolation
{
    method              inverseDistance;
    searchBox           (0 0 0)(0.01 0.01 0.01);
    searchBoxDivisions  (100 100 1);

    //method              trackingInverseDistance;
    //searchBoxDivisions  2{(100 100 1)};
}

fluxRequired
{
    default         no;
    pcorr           ;
    p_rbgh               ;
    alpha_a               ;
}

// ************************************************************************* //
